units(length='cm', time='s', quantity='mol', act_energy='cal/mol')

ideal_gas(name='gas',
          elements="N Ar O H C",
          species="""N2          AR          O           O2          H2          
                     H           OH          H2O2        H2O         HO2         
                     HCO         CH2         CO          CH2O        CO2         
                     CH3         CH4         C2H4        CH3OH       C2H5        
                     C2H6        CH3O        HOCHO       CH3O2       CH3O2H      
                     C2H2        CH2CO       C3H4XA      C3H4XP      C3H5XA      
                     C2H3        CH3CHO      C2H5O2      C3H3        C3H6        
                     C2H3CHO     CH3COCH2    NXC3H7      C3H8        CH3COCH3    
                     IXC3H7O2    NXC3H7O2    C4H6        C4H8X1      IXC4H7      
                     IXC4H8      IXC3H5CHO   IXC3H6CO    IXC4H10     C4H10       
                     IXC3H5CO    IXC4H7OH    IXC4H9O2    TXC4H9O2    PXC4H9O2    
                     C5H9        IXC5H9      AXC5H10     C5H10X1     C6H11       
                     C6H12X1     YXC7H14     NXC7H16     IXC8H18     CH          
                     CH2GSG      CH2OH       HOCH2O      C2H         HCCO        
                     CH2CHO      C2H5O       C2H3O1X2    CH3CO       C3H2        
                     C3H5O       C3H5XT      IXC3H7      C2H3CO      CH2CCH2OH   
                     C4H7        C4H7O       IXC4H7O     IXC4H9      PXC4H9      
                     TXC4H9      TXC4H9O     IXC4H6OH    C4H8OOH1X3  IC4H8O2HXT  
                     TC4H8O2HXI  NEOXC5H11   C5H11X1     C6H13X1     XXC7H13     
                     XC7H13OXZ   C7H15X2     YXC7H15     CXC8H17 N  NH  NH2  NH3  NNH  NO  NO2  N2O  HNO  CN 
                   HCN  H2CN  HCNN  HCNO  HOCN  HNCO  NCO C""",
          reactions='all',
          transport='Mix',
          initial_state=state(temperature=300.0, pressure=OneAtm))

#-------------------------------------------------------------------------------
# Species data
# Mechanism contains 99 species and 601 reactions.
#-------------------------------------------------------------------------------

species(name='N2',
        atoms='N:2',
        thermo=(NASA([300.00, 1000.00],
                     [ 3.29867700E+00,  1.40824000E-03, -3.96322200E-06,
                       5.64151500E-09, -2.44485500E-12, -1.02090000E+03,
                       3.95037200E+00]),
                NASA([1000.00, 5000.00],
                     [ 2.92664000E+00,  1.48797700E-03, -5.68476100E-07,
                       1.00970400E-10, -6.75335100E-15, -9.22797700E+02,
                       5.98052800E+00])),
        transport=gas_transport(geom='linear',
                                diam=3.621,
                                well_depth=97.53),
        note='000000')

species(name='AR',
        atoms='Ar:1',
        thermo=(NASA([300.00, 1000.00],
                     [ 2.50000000E+00,  0.00000000E+00,  0.00000000E+00,
                       0.00000000E+00,  0.00000000E+00, -7.45375000E+02,
                       4.36600100E+00]),
                NASA([1000.00, 5000.00],
                     [ 2.50000000E+00,  0.00000000E+00,  0.00000000E+00,
                       0.00000000E+00,  0.00000000E+00, -7.45375000E+02,
                       4.36600100E+00])),
        transport=gas_transport(geom='atom',
                                diam=3.33,
                                well_depth=136.5),
        note='000000')

species(name='O',
        atoms='O:1',
        thermo=(NASA([300.00, 1000.00],
                     [ 2.94642900E+00, -1.63816600E-03,  2.42103200E-06,
                      -1.60284300E-09,  3.89069600E-13,  2.91476400E+04,
                       2.96399500E+00]),
                NASA([1000.00, 5000.00],
                     [ 2.54206000E+00, -2.75506200E-05, -3.10280300E-09,
                       4.55106700E-12, -4.36805200E-16,  2.92308000E+04,
                       4.92030800E+00])),
        transport=gas_transport(geom='atom',
                                diam=2.75,
                                well_depth=80.0),
        note='000000')

species(name='O2',
        atoms='O:2',
        thermo=(NASA([300.00, 1000.00],
                     [ 3.21293600E+00,  1.12748600E-03, -5.75615000E-07,
                       1.31387700E-09, -8.76855400E-13, -1.00524900E+03,
                       6.03473800E+00]),
                NASA([1000.00, 5000.00],
                     [ 3.69757800E+00,  6.13519700E-04, -1.25884200E-07,
                       1.77528100E-11, -1.13643500E-15, -1.23393000E+03,
                       3.18916600E+00])),
        transport=gas_transport(geom='linear',
                                diam=3.458,
                                well_depth=107.4),
        note='000000')

species(name='H2',
        atoms='H:2',
        thermo=(NASA([300.00, 1000.00],
                     [ 3.29812400E+00,  8.24944200E-04, -8.14301500E-07,
                      -9.47543400E-11,  4.13487200E-13, -1.01252100E+03,
                      -3.29409400E+00]),
                NASA([1000.00, 5000.00],
                     [ 2.99142300E+00,  7.00064400E-04, -5.63382900E-08,
                      -9.23157800E-12,  1.58275200E-15, -8.35034000E+02,
                      -1.35511000E+00])),
        transport=gas_transport(geom='linear',
                                diam=2.92,
                                well_depth=38.0),
        note='000000')

species(name='H',
        atoms='H:1',
        thermo=(NASA([300.00, 1000.00],
                     [ 2.50104422E+00,  0.00000000E+00,  0.00000000E+00,
                       0.00000000E+00,  0.00000000E+00,  2.54747466E+04,
                      -4.65341317E-01]),
                NASA([1000.00, 5000.00],
                     [ 2.50104422E+00,  0.00000000E+00,  0.00000000E+00,
                       0.00000000E+00,  0.00000000E+00,  2.54747466E+04,
                      -4.65341317E-01])),
        transport=gas_transport(geom='atom',
                                diam=2.05,
                                well_depth=145.0),
        note='000000')

species(name='OH',
        atoms='H:1 O:1',
        thermo=(NASA([300.00, 1000.00],
                     [ 3.43586219E+00,  2.02235804E-04, -1.13546412E-07,
                       2.42445149E-10, -7.43651031E-14,  3.74321252E+03,
                       2.45014127E+00]),
                NASA([1000.00, 5000.00],
                     [ 3.69039275E+00, -5.80802318E-04,  7.63303256E-07,
                      -1.80262059E-10,  0.00000000E+00,  3.67872158E+03,
                       1.15883087E+00])),
        transport=gas_transport(geom='linear',
                                diam=2.75,
                                well_depth=80.0),
        note='000000')

species(name='H2O2',
        atoms='H:2 O:2',
        thermo=(NASA([300.00, 1000.00],
                     [ 3.38875400E+00,  6.56922600E-03, -1.48501300E-07,
                      -4.62580600E-09,  2.47151500E-12, -1.76631500E+04,
                       6.78536300E+00]),
                NASA([1000.00, 5000.00],
                     [ 4.57316700E+00,  4.33613600E-03, -1.47468900E-06,
                       2.34890400E-10, -1.43165400E-14, -1.80069600E+04,
                       5.01137000E-01])),
        transport=gas_transport(geom='nonlinear',
                                diam=3.458,
                                well_depth=107.4),
        note='000000')

species(name='H2O',
        atoms='H:2 O:1',
        thermo=(NASA([300.00, 1000.00],
                     [ 3.38684200E+00,  3.47498200E-03, -6.35469600E-06,
                       6.96858100E-09, -2.50658800E-12, -3.02081100E+04,
                       2.59023300E+00]),
                NASA([1000.00, 5000.00],
                     [ 2.67214600E+00,  3.05629300E-03, -8.73026000E-07,
                       1.20099600E-10, -6.39161800E-15, -2.98992100E+04,
                       6.86281700E+00])),
        transport=gas_transport(geom='nonlinear',
                                diam=2.605,
                                well_depth=572.4),
        note='000000')

species(name='HO2',
        atoms='H:1 O:2',
        thermo=(NASA([300.00, 1000.00],
                     [ 3.18310656E+00,  3.66767950E-03, -9.32385122E-07,
                      -3.25852919E-10,  1.51139912E-13,  8.09181013E+02,
                       8.39371099E+00]),
                NASA([1000.00, 5000.00],
                     [ 3.00201579E+00,  4.38552424E-03, -1.97594219E-06,
                       3.32090097E-10,  0.00000000E+00,  8.44944001E+02,
                       9.26704616E+00])),
        transport=gas_transport(geom='nonlinear',
                                diam=3.458,
                                well_depth=107.4),
        note='000000')

species(name='HCO',
        atoms='H:1 C:1 O:1',
        thermo=(NASA([300.00, 1000.00],
                     [ 2.89833000E+00,  6.19914700E-03, -9.62308400E-06,
                       1.08982500E-08, -4.57488500E-12,  4.15992200E+03,
                       8.98361400E+00]),
                NASA([1000.00, 5000.00],
                     [ 3.55727100E+00,  3.34557300E-03, -1.33500600E-06,
                       2.47057300E-10, -1.71385100E-14,  3.91632400E+03,
                       5.55229900E+00])),
        transport=gas_transport(geom='nonlinear',
                                diam=3.59,
                                well_depth=498.0),
        note='000000')

species(name='CH2',
        atoms='H:2 C:1',
        thermo=(NASA([300.00, 1000.00],
                     [ 3.76223700E+00,  1.15981900E-03,  2.48958500E-07,
                       8.80083600E-10, -7.33243500E-13,  4.53679100E+04,
                       1.71257800E+00]),
                NASA([1000.00, 5000.00],
                     [ 3.63640800E+00,  1.93305700E-03, -1.68701600E-07,
                      -1.00989900E-10,  1.80825600E-14,  4.53413400E+04,
                       2.15656100E+00])),
        transport=gas_transport(geom='nonlinear',
                                diam=3.8,
                                well_depth=144.0),
        note='000000')

species(name='CO',
        atoms='C:1 O:1',
        thermo=(NASA([300.00, 1000.00],
                     [ 3.26245200E+00,  1.51194100E-03, -3.88175500E-06,
                       5.58194400E-09, -2.47495100E-12, -1.43105400E+04,
                       4.84889700E+00]),
                NASA([1000.00, 5000.00],
                     [ 3.02507800E+00,  1.44268900E-03, -5.63082800E-07,
                       1.01858100E-10, -6.91095200E-15, -1.42683500E+04,
                       6.10821800E+00])),
        transport=gas_transport(geom='linear',
                                diam=3.65,
                                well_depth=98.1),
        note='000000')

species(name='CH2O',
        atoms='H:2 C:1 O:1',
        thermo=(NASA([300.00, 1000.00],
                     [ 1.65273100E+00,  1.26314400E-02, -1.88816800E-05,
                       2.05003100E-08, -8.41323700E-12, -1.48654000E+04,
                       1.37848200E+01]),
                NASA([1000.00, 5000.00],
                     [ 2.99560600E+00,  6.68132100E-03, -2.62895500E-06,
                       4.73715300E-10, -3.21251700E-14, -1.53203700E+04,
                       6.91257200E+00])),
        transport=gas_transport(geom='nonlinear',
                                diam=3.59,
                                well_depth=498.0),
        note='000000')

species(name='CO2',
        atoms='C:1 O:2',
        thermo=(NASA([300.00, 1000.00],
                     [ 2.27572500E+00,  9.92207200E-03, -1.04091100E-05,
                       6.86668700E-09, -2.11728000E-12, -4.83731400E+04,
                       1.01884900E+01]),
                NASA([1000.00, 5000.00],
                     [ 4.45362300E+00,  3.14016900E-03, -1.27841100E-06,
                       2.39399700E-10, -1.66903300E-14, -4.89669600E+04,
                      -9.55395900E-01])),
        transport=gas_transport(geom='nonlinear',
                                diam=3.763,
                                well_depth=244.0),
        note='000000')

species(name='CH3',
        atoms='H:3 C:1',
        thermo=(NASA([300.00, 1000.00],
                     [ 2.43044300E+00,  1.11241000E-02, -1.68022000E-05,
                       1.62182900E-08, -5.86495300E-12,  1.64237800E+04,
                       6.78979400E+00]),
                NASA([1000.00, 5000.00],
                     [ 2.84405200E+00,  6.13797400E-03, -2.23034500E-06,
                       3.78516100E-10, -2.45215900E-14,  1.64378100E+04,
                       5.45269700E+00])),
        transport=gas_transport(geom='nonlinear',
                                diam=3.8,
                                well_depth=144.0),
        note='000000')

species(name='CH4',
        atoms='H:4 C:1',
        thermo=(NASA([300.00, 1000.00],
                     [ 7.78741500E-01,  1.74766800E-02, -2.78340900E-05,
                       3.04970800E-08, -1.22393100E-11, -9.82522900E+03,
                       1.37221900E+01]),
                NASA([1000.00, 5000.00],
                     [ 1.68347900E+00,  1.02372400E-02, -3.87512900E-06,
                       6.78558500E-10, -4.50342300E-14, -1.00807900E+04,
                       9.62339500E+00])),
        transport=gas_transport(geom='nonlinear',
                                diam=3.746,
                                well_depth=141.4),
        note='000000')

species(name='C2H4',
        atoms='H:4 C:2',
        thermo=(NASA([300.00, 1000.00],
                     [-8.61488000E-01,  2.79616300E-02, -3.38867700E-05,
                       2.78515200E-08, -9.73787900E-12,  5.57304600E+03,
                       2.42114900E+01]),
                NASA([1000.00, 5000.00],
                     [ 3.52841900E+00,  1.14851800E-02, -4.41838500E-06,
                       7.84460100E-10, -5.26684800E-14,  4.42828900E+03,
                       2.23038900E+00])),
        transport=gas_transport(geom='nonlinear',
                                diam=3.496,
                                well_depth=238.4),
        note='000000')

species(name='CH3OH',
        atoms='H:4 C:1 O:1',
        thermo=(NASA([300.00, 1000.00],
                     [ 2.66011500E+00,  7.34150800E-03,  7.17005100E-06,
                      -8.79319400E-09,  2.39057000E-12, -2.53534800E+04,
                       1.12326300E+01]),
                NASA([1000.00, 5000.00],
                     [ 4.02906100E+00,  9.37659300E-03, -3.05025400E-06,
                       4.35879300E-10, -2.22472300E-14, -2.61579100E+04,
                       2.37819600E+00])),
        transport=gas_transport(geom='nonlinear',
                                diam=3.626,
                                well_depth=481.8),
        note='000000')

species(name='C2H5',
        atoms='H:5 C:2',
        thermo=(NASA([300.00, 1000.00],
                     [ 2.69070200E+00,  8.71913300E-03,  4.41983900E-06,
                       9.33870300E-10, -3.92777300E-12,  1.28704000E+04,
                       1.21382000E+01]),
                NASA([1000.00, 5000.00],
                     [ 7.19048000E+00,  6.48407700E-03, -6.42806500E-07,
                      -2.34787900E-10,  3.88087700E-14,  1.06745500E+04,
                      -1.47808900E+01])),
        transport=gas_transport(geom='nonlinear',
                                diam=4.35,
                                well_depth=247.5),
        note='000000')

species(name='C2H6',
        atoms='H:6 C:2',
        thermo=(NASA([300.00, 1000.00],
                     [-2.52854344E-02,  2.40764754E-02, -1.11893472E-05,
                       2.08340901E-09, -5.29868616E-14, -1.12345534E+04,
                       2.11648750E+01]),
                NASA([1000.00, 5000.00],
                     [ 2.78247515E-01,  2.31689676E-02, -1.02319436E-05,
                       1.67699340E-09,  0.00000000E+00, -1.13124605E+04,
                       1.96191748E+01])),
        transport=gas_transport(geom='nonlinear',
                                diam=4.35,
                                well_depth=247.5),
        note='000000')

species(name='CH3O',
        atoms='H:3 C:1 O:1',
        thermo=(NASA([300.00, 1000.00],
                     [ 2.10620400E+00,  7.21659500E-03,  5.33847200E-06,
                      -7.37763600E-09,  2.07561100E-12,  9.78601100E+02,
                       1.31521800E+01]),
                NASA([1000.00, 5000.00],
                     [ 3.77080000E+00,  7.87149700E-03, -2.65638400E-06,
                       3.94443100E-10, -2.11261600E-14,  1.27832500E+02,
                       2.92957500E+00])),
        transport=gas_transport(geom='nonlinear',
                                diam=3.69,
                                well_depth=417.0),
        note='000000')

species(name='HOCHO',
        atoms='H:2 C:1 O:2',
        thermo=(NASA([300.00, 1000.00],
                     [ 1.43548185E+00,  1.63363016E-02, -1.06257421E-05,
                       3.32132977E-09, -4.02176103E-13, -4.64616504E+04,
                       1.72885798E+01]),
                NASA([1000.00, 5000.00],
                     [ 2.71806922E+00,  1.23155199E-02, -6.02976465E-06,
                       1.06137058E-09,  0.00000000E+00, -4.67812848E+04,
                       1.08043488E+01])),
        transport=gas_transport(geom='nonlinear',
                                diam=3.97,
                                well_depth=436.0),
        note='000000')

species(name='CH3O2',
        atoms='H:3 C:1 O:2',
        thermo=(NASA([300.00, 1000.00],
                     [ 4.26146906E+00,  1.00873599E-02, -3.21506184E-06,
                       2.09409267E-10,  4.18339103E-14, -6.84394259E+02,
                       5.16330320E+00]),
                NASA([1000.00, 5000.00],
                     [ 3.72224006E+00,  1.15430493E-02, -4.55058763E-06,
                       6.70308528E-10,  0.00000000E+00, -5.34692750E+02,
                       7.95706399E+00])),
        transport=gas_transport(geom='nonlinear',
                                diam=3.626,
                                well_depth=481.8),
        note='000000')

species(name='CH3O2H',
        atoms='H:4 C:1 O:2',
        thermo=(NASA([300.00, 1000.00],
                     [ 3.23442817E+00,  1.90129767E-02, -1.13386287E-05,
                       3.40306653E-09, -4.11830222E-13, -1.77197926E+04,
                       9.25623949E+00]),
                NASA([1000.00, 5000.00],
                     [ 4.46640989E+00,  1.51021326E-02, -6.80105535E-06,
                       1.13252538E-09,  0.00000000E+00, -1.80236075E+04,
                       3.04195823E+00])),
        transport=gas_transport(geom='nonlinear',
                                diam=3.626,
                                well_depth=481.8),
        note='000000')

species(name='C2H2',
        atoms='H:2 C:2',
        thermo=(NASA([300.00, 1000.00],
                     [ 2.01356200E+00,  1.51904500E-02, -1.61631900E-05,
                       9.07899200E-09, -1.91274600E-12,  2.61244400E+04,
                       8.80537800E+00]),
                NASA([1000.00, 5000.00],
                     [ 4.43677000E+00,  5.37603900E-03, -1.91281700E-06,
                       3.28637900E-10, -2.15671000E-14,  2.56676600E+04,
                      -2.80033800E+00])),
        transport=gas_transport(geom='nonlinear',
                                diam=3.721,
                                well_depth=265.3),
        note='000000')

species(name='CH2CO',
        atoms='H:2 C:2 O:1',
        thermo=(NASA([300.00, 1000.00],
                     [ 2.97497100E+00,  1.21187100E-02, -2.34504600E-06,
                      -6.46668500E-09,  3.90564900E-12, -7.63263700E+03,
                       8.67355300E+00]),
                NASA([1000.00, 5000.00],
                     [ 6.03881700E+00,  5.80484000E-03, -1.92095400E-06,
                       2.79448500E-10, -1.45886800E-14, -8.58340200E+03,
                      -7.65758100E+00])),
        transport=gas_transport(geom='nonlinear',
                                diam=3.97,
                                well_depth=436.0),
        note='000000')

species(name='C3H4XA',
        atoms='H:4 C:3',
        thermo=(NASA([300.00, 1000.00],
                     [ 2.53983100E+00,  1.63343700E-02, -1.76495000E-06,
                      -4.64736500E-09,  1.72913100E-12,  2.25124300E+04,
                       9.93570200E+00]),
                NASA([1000.00, 5000.00],
                     [ 1.97418459E+00,  2.05280021E-02, -1.01844059E-05,
                       1.87323627E-09,  0.00000000E+00,  2.25034216E+04,
                       1.21178939E+01])),
        transport=gas_transport(geom='nonlinear',
                                diam=4.29,
                                well_depth=324.8),
        note='000000')

species(name='C3H4XP',
        atoms='H:4 C:3',
        thermo=(NASA([300.00, 1000.00],
                     [ 3.02973000E+00,  1.49896100E-02, -1.39850000E-06,
                      -3.96961900E-09,  1.38821700E-12,  2.14840800E+04,
                       8.00459400E+00]),
                NASA([1000.00, 5000.00],
                     [ 1.76237742E+00,  2.05568619E-02, -1.01191630E-05,
                       1.83936170E-09,  0.00000000E+00,  2.17000925E+04,
                       1.39629625E+01])),
        transport=gas_transport(geom='nonlinear',
                                diam=4.29,
                                well_depth=324.8),
        note='000000')

species(name='C3H5XA',
        atoms='H:5 C:3',
        thermo=(NASA([300.00, 1000.00],
                     [-5.29131958E-01,  3.34559100E-02, -2.53401027E-05,
                       1.02865754E-08, -1.73258340E-12,  1.93834226E+04,
                       2.53067131E+01]),
                NASA([1000.00, 5000.00],
                     [ 3.66851913E+00,  1.96203316E-02, -8.52931569E-06,
                       1.38113234E-09,  0.00000000E+00,  1.83798091E+04,
                       4.27588674E+00])),
        transport=gas_transport(geom='nonlinear',
                                diam=4.22,
                                well_depth=316.0),
        note='000000')

species(name='C2H3',
        atoms='H:3 C:2',
        thermo=(NASA([300.00, 1000.00],
                     [ 2.45927600E+00,  7.37147600E-03,  2.10987300E-06,
                      -1.32164200E-09, -1.18478400E-12,  3.33522500E+04,
                       1.15562000E+01]),
                NASA([1000.00, 5000.00],
                     [ 5.93346800E+00,  4.01774600E-03, -3.96674000E-07,
                      -1.44126700E-10,  2.37864400E-14,  3.18543500E+04,
                      -8.53031300E+00])),
        transport=gas_transport(geom='nonlinear',
                                diam=3.721,
                                well_depth=265.3),
        note='000000')

species(name='CH3CHO',
        atoms='H:4 C:2 O:1',
        thermo=(NASA([300.00, 1000.00],
                     [ 2.50569500E+00,  1.33699100E-02,  4.67195300E-06,
                      -1.12814000E-08,  4.26356600E-12, -2.12458900E+04,
                       1.33508900E+01]),
                NASA([1000.00, 5000.00],
                     [ 5.86865000E+00,  1.07942400E-02, -3.64553000E-06,
                       5.41291200E-10, -2.89684400E-14, -2.26456900E+04,
                      -6.01294600E+00])),
        transport=gas_transport(geom='nonlinear',
                                diam=3.97,
                                well_depth=436.0),
        note='000000')

species(name='C2H5O2',
        atoms='H:5 C:2 O:2',
        thermo=(NASA([300.00, 1000.00],
                     [ 2.26846188E+00,  2.76942578E-02, -1.70804106E-05,
                       5.87951878E-09, -9.20899069E-13, -5.03880758E+03,
                       1.64773972E+01]),
                NASA([1000.00, 5000.00],
                     [ 3.82827163E+00,  2.20715592E-02, -9.59354350E-06,
                       1.53464150E-09,  0.00000000E+00, -5.38085087E+03,
                       8.79994592E+00])),
        transport=gas_transport(geom='nonlinear',
                                diam=4.41,
                                well_depth=470.6),
        note='000000')

species(name='C3H3',
        atoms='H:3 C:3',
        thermo=(NASA([300.00, 1000.00],
                     [ 4.75420000E+00,  1.10802800E-02,  2.79332300E-07,
                      -5.47921200E-09,  1.94962900E-12,  3.98888300E+04,
                       5.85454900E-01]),
                NASA([1000.00, 5000.00],
                     [ 8.83104700E+00,  4.35719500E-03, -4.10906700E-07,
                      -2.36872300E-10,  4.37652000E-14,  3.84742000E+04,
                      -2.17791900E+01])),
        transport=gas_transport(geom='nonlinear',
                                diam=4.29,
                                well_depth=324.8),
        note='000000')

species(name='C3H6',
        atoms='H:6 C:3',
        thermo=(NASA([300.00, 1000.00],
                     [ 3.94615444E-01,  2.89107662E-02, -1.54886808E-05,
                       3.88814209E-09, -3.37890352E-13,  1.06688164E+03,
                       2.19003736E+01]),
                NASA([1000.00, 5000.00],
                     [ 1.68134957E+00,  2.49690718E-02, -1.11276041E-05,
                       1.84413526E-09,  0.00000000E+00,  7.40726095E+02,
                       1.53699482E+01])),
        transport=gas_transport(geom='nonlinear',
                                diam=4.14,
                                well_depth=307.8),
        note='000000')

species(name='C2H3CHO',
        atoms='H:4 C:3 O:1',
        thermo=(NASA([300.00, 1000.00],
                     [ 2.92355162E-01,  3.54321417E-02, -2.94936324E-05,
                       1.28100124E-08, -2.26144108E-12, -1.16521584E+04,
                       2.28878280E+01]),
                NASA([1000.00, 5000.00],
                     [ 5.56154592E+00,  1.79295837E-02, -8.03464758E-06,
                       1.32295375E-09,  0.00000000E+00, -1.29035886E+04,
                      -3.47372739E+00])),
        transport=gas_transport(geom='nonlinear',
                                diam=4.958,
                                well_depth=428.8),
        note='000000')

species(name='CH3COCH2',
        atoms='H:5 C:3 O:1',
        thermo=(NASA([300.00, 1000.00],
                     [ 1.80339187E+00,  3.01407085E-02, -1.93505552E-05,
                       6.38199034E-09, -8.66103180E-13, -5.37233261E+03,
                       1.78046408E+01]),
                NASA([1000.00, 5000.00],
                     [ 4.27637519E+00,  2.22349285E-02, -1.00918419E-05,
                       1.68997058E-09,  0.00000000E+00, -5.97887937E+03,
                       5.34578139E+00])),
        transport=gas_transport(geom='nonlinear',
                                diam=4.86,
                                well_depth=435.5),
        note='000000')

species(name='NXC3H7',
        atoms='H:7 C:3',
        thermo=(NASA([300.00, 1000.00],
                     [ 1.92253700E+00,  2.47892700E-02,  1.81024900E-06,
                      -1.78326600E-08,  8.58299600E-12,  9.71328100E+03,
                       1.39927100E+01]),
                NASA([1000.00, 5000.00],
                     [ 7.97829100E+00,  1.57611300E-02, -5.17324300E-06,
                       7.44389200E-10, -3.82497800E-14,  7.57940200E+03,
                      -1.93561100E+01])),
        transport=gas_transport(geom='nonlinear',
                                diam=4.81,
                                well_depth=303.4),
        note='000000')

species(name='C3H8',
        atoms='H:8 C:3',
        thermo=(NASA([300.00, 1000.00],
                     [ 8.96920800E-01,  2.66898600E-02,  5.43142500E-06,
                      -2.12600100E-08,  9.24333000E-12, -1.39549200E+04,
                       1.93553300E+01]),
                NASA([1000.00, 5000.00],
                     [ 7.52521700E+00,  1.88903400E-02, -6.28392400E-06,
                       9.17937300E-10, -4.81241000E-14, -1.64645500E+04,
                      -1.78439000E+01])),
        transport=gas_transport(geom='nonlinear',
                                diam=4.81,
                                well_depth=303.4),
        note='000000')

species(name='CH3COCH3',
        atoms='H:6 C:3 O:1',
        thermo=(NASA([300.00, 1000.00],
                     [ 1.30767163E+00,  2.92021742E-02, -1.19045617E-05,
                       6.52150087E-10,  4.67751203E-13, -2.75328269E+04,
                       1.96395025E+01]),
                NASA([1000.00, 5000.00],
                     [ 1.07057510E+00,  3.05641014E-02, -1.43848777E-05,
                       2.47538664E-09,  0.00000000E+00, -2.75121809E+04,
                       2.06647304E+01])),
        transport=gas_transport(geom='nonlinear',
                                diam=4.86,
                                well_depth=435.5),
        note='000000')

species(name='IXC3H7O2',
        atoms='H:7 C:3 O:2',
        thermo=(NASA([300.00, 1000.00],
                     [ 1.49941639E+00,  4.43081205E-02, -3.22414456E-05,
                       1.29687136E-08, -2.23370569E-12, -1.02587980E+04,
                       2.02336490E+01]),
                NASA([1000.00, 5000.00],